*SPEF "ieee 1481-1999"
*DESIGN "inverter"
*DATE "11:11:11 Fri 11 11, 1111"
*VENDOR "OpenRCX"
*PROGRAM "Parallel Extraction"
*VERSION "1.0"
*DESIGN_FLOW "NAME_SCOPE LOCAL" "PIN_CAP NONE"
*DIVIDER /
*DELIMITER :
*BUS_DELIMITER []
*T_UNIT 1 NS
*C_UNIT 1 PF
*R_UNIT 1 OHM
*L_UNIT 1 HENRY

*NAME_MAP
*3 in
*4 out
*5 net1
*6 net2
*7 FILLER_0_21
*8 FILLER_0_27
*9 FILLER_0_29
*10 FILLER_0_3
*11 FILLER_0_41
*12 FILLER_0_53
*13 FILLER_0_57
*14 FILLER_0_69
*15 FILLER_0_9
*16 FILLER_1_15
*17 FILLER_1_27
*18 FILLER_1_3
*19 FILLER_1_39
*20 FILLER_1_51
*21 FILLER_1_55
*22 FILLER_1_57
*23 FILLER_1_69
*24 FILLER_2_15
*25 FILLER_2_27
*26 FILLER_2_29
*27 FILLER_2_3
*28 FILLER_2_41
*29 FILLER_2_53
*30 FILLER_2_65
*31 FILLER_2_77
*32 FILLER_3_15
*33 FILLER_3_27
*34 FILLER_3_3
*35 FILLER_3_39
*36 FILLER_3_51
*37 FILLER_3_55
*38 FILLER_3_57
*39 FILLER_3_69
*40 FILLER_3_75
*41 FILLER_3_79
*42 FILLER_4_15
*43 FILLER_4_27
*44 FILLER_4_29
*45 FILLER_4_3
*46 FILLER_4_41
*47 FILLER_4_53
*48 FILLER_4_65
*49 FILLER_4_77
*50 FILLER_5_15
*51 FILLER_5_27
*52 FILLER_5_3
*53 FILLER_5_39
*54 FILLER_5_51
*55 FILLER_5_55
*56 FILLER_5_57
*57 FILLER_5_69
*58 FILLER_6_15
*59 FILLER_6_27
*60 FILLER_6_29
*61 FILLER_6_3
*62 FILLER_6_41
*63 FILLER_6_53
*64 FILLER_6_65
*65 FILLER_6_77
*66 FILLER_7_15
*67 FILLER_7_27
*68 FILLER_7_3
*69 FILLER_7_39
*70 FILLER_7_51
*71 FILLER_7_55
*72 FILLER_7_57
*73 FILLER_7_69
*74 FILLER_8_15
*75 FILLER_8_27
*76 FILLER_8_29
*77 FILLER_8_3
*78 FILLER_8_41
*79 FILLER_8_53
*80 FILLER_8_65
*81 FILLER_8_77
*82 FILLER_9_15
*83 FILLER_9_27
*84 FILLER_9_29
*85 FILLER_9_3
*86 FILLER_9_41
*87 FILLER_9_53
*88 FILLER_9_57
*89 FILLER_9_69
*90 FILLER_9_75
*91 FILLER_9_79
*92 PHY_0
*93 PHY_1
*94 PHY_10
*95 PHY_11
*96 PHY_12
*97 PHY_13
*98 PHY_14
*99 PHY_15
*100 PHY_16
*101 PHY_17
*102 PHY_18
*103 PHY_19
*104 PHY_2
*105 PHY_3
*106 PHY_4
*107 PHY_5
*108 PHY_6
*109 PHY_7
*110 PHY_8
*111 PHY_9
*112 TAP_20
*113 TAP_21
*114 TAP_22
*115 TAP_23
*116 TAP_24
*117 TAP_25
*118 TAP_26
*119 TAP_27
*120 TAP_28
*121 TAP_29
*122 TAP_30
*123 TAP_31
*124 _0_
*125 input1
*126 output2

*PORTS
in I
out O

*D_NET *3 0.00137001
*CONN
*P in I
*I *125:A I *D sky130_fd_sc_hd__clkbuf_1
*CAP
1 in 0.000685006
2 *125:A 0.000685006
*RES
1 in *125:A 16.2 
*END

*D_NET *4 0.00132764
*CONN
*P out O
*I *126:X O *D sky130_fd_sc_hd__buf_2
*CAP
1 out 0.000663818
2 *126:X 0.000663818
*RES
1 *126:X out 15.705 
*END

*D_NET *5 0.00121346
*CONN
*I *124:A I *D sky130_fd_sc_hd__inv_2
*I *125:X O *D sky130_fd_sc_hd__clkbuf_1
*CAP
1 *124:A 0.000606728
2 *125:X 0.000606728
*RES
1 *125:X *124:A 18.78 
*END

*D_NET *6 0.00332652
*CONN
*I *126:A I *D sky130_fd_sc_hd__buf_2
*I *124:Y O *D sky130_fd_sc_hd__inv_2
*CAP
1 *126:A 0.00166326
2 *124:Y 0.00166326
*RES
1 *124:Y *126:A 36.825 
*END
