*SPEF "ieee 1481-1999"
*DESIGN "inverter"
*DATE "11:11:11 Fri 11 11, 1111"
*VENDOR "OpenRCX"
*PROGRAM "Parallel Extraction"
*VERSION "1.0"
*DESIGN_FLOW "NAME_SCOPE LOCAL" "PIN_CAP NONE"
*DIVIDER /
*DELIMITER :
*BUS_DELIMITER []
*T_UNIT 1 NS
*C_UNIT 1 PF
*R_UNIT 1 OHM
*L_UNIT 1 HENRY

*NAME_MAP
*3 in
*4 out
*5 net1
*6 net2
*7 FILLER_0_21
*8 FILLER_0_27
*9 FILLER_0_29
*10 FILLER_0_3
*11 FILLER_0_41
*12 FILLER_0_53
*13 FILLER_0_57
*14 FILLER_0_69
*15 FILLER_0_9
*16 FILLER_1_15
*17 FILLER_1_27
*18 FILLER_1_3
*19 FILLER_1_39
*20 FILLER_1_51
*21 FILLER_1_55
*22 FILLER_1_57
*23 FILLER_1_69
*24 FILLER_2_15
*25 FILLER_2_27
*26 FILLER_2_29
*27 FILLER_2_3
*28 FILLER_2_41
*29 FILLER_2_53
*30 FILLER_2_65
*31 FILLER_2_77
*32 FILLER_3_15
*33 FILLER_3_27
*34 FILLER_3_3
*35 FILLER_3_39
*36 FILLER_3_47
*37 FILLER_3_51
*38 FILLER_3_55
*39 FILLER_3_57
*40 FILLER_3_69
*41 FILLER_4_15
*42 FILLER_4_27
*43 FILLER_4_29
*44 FILLER_4_3
*45 FILLER_4_41
*46 FILLER_4_53
*47 FILLER_4_65
*48 FILLER_4_77
*49 FILLER_5_15
*50 FILLER_5_27
*51 FILLER_5_3
*52 FILLER_5_39
*53 FILLER_5_51
*54 FILLER_5_55
*55 FILLER_5_57
*56 FILLER_5_69
*57 FILLER_6_15
*58 FILLER_6_27
*59 FILLER_6_29
*60 FILLER_6_3
*61 FILLER_6_41
*62 FILLER_6_53
*63 FILLER_6_65
*64 FILLER_6_77
*65 FILLER_7_15
*66 FILLER_7_27
*67 FILLER_7_3
*68 FILLER_7_39
*69 FILLER_7_51
*70 FILLER_7_55
*71 FILLER_7_57
*72 FILLER_7_69
*73 FILLER_8_15
*74 FILLER_8_27
*75 FILLER_8_29
*76 FILLER_8_3
*77 FILLER_8_41
*78 FILLER_8_53
*79 FILLER_8_65
*80 FILLER_8_77
*81 FILLER_9_15
*82 FILLER_9_27
*83 FILLER_9_29
*84 FILLER_9_3
*85 FILLER_9_41
*86 FILLER_9_53
*87 FILLER_9_57
*88 FILLER_9_69
*89 FILLER_9_75
*90 FILLER_9_79
*91 PHY_0
*92 PHY_1
*93 PHY_10
*94 PHY_11
*95 PHY_12
*96 PHY_13
*97 PHY_14
*98 PHY_15
*99 PHY_16
*100 PHY_17
*101 PHY_18
*102 PHY_19
*103 PHY_2
*104 PHY_3
*105 PHY_4
*106 PHY_5
*107 PHY_6
*108 PHY_7
*109 PHY_8
*110 PHY_9
*111 TAP_20
*112 TAP_21
*113 TAP_22
*114 TAP_23
*115 TAP_24
*116 TAP_25
*117 TAP_26
*118 TAP_27
*119 TAP_28
*120 TAP_29
*121 TAP_30
*122 TAP_31
*123 _0_
*124 input1
*125 output2

*PORTS
in I
out O

*D_NET *3 0.00137001
*CONN
*P in I
*I *124:A I *D sky130_fd_sc_hd__clkbuf_1
*CAP
1 in 0.000685006
2 *124:A 0.000685006
*RES
1 in *124:A 28.8 
*END

*D_NET *4 0.00132764
*CONN
*P out O
*I *125:X O *D sky130_fd_sc_hd__buf_2
*CAP
1 out 0.000663818
2 *125:X 0.000663818
*RES
1 *125:X out 28.2107 
*END

*D_NET *5 0.00226074
*CONN
*I *123:A I *D sky130_fd_sc_hd__inv_2
*I *124:X O *D sky130_fd_sc_hd__clkbuf_1
*CAP
1 *123:A 0
2 *124:X 0.00113037
3 *5:11 0.00113037
*RES
1 *124:X *5:11 43.0143 
2 *5:11 *123:A 9.3 
*END

*D_NET *6 0.00222447
*CONN
*I *125:A I *D sky130_fd_sc_hd__buf_2
*I *123:Y O *D sky130_fd_sc_hd__inv_2
*CAP
1 *125:A 0
2 *123:Y 0.00111224
3 *6:9 0.00111224
*RES
1 *123:Y *6:9 42.0679 
2 *6:9 *125:A 9.3 
*END
